test_networks/archived/large10kB_1ph/PVSystem.dss
New PVsystem.PV2 irrad=1.0 Phases=1 Bus1=2.1 kV=7.1996 kVA=84.0 Pmpp=70.0 %cutin=0.001 %cutout=0.001 Daily=LoadShapePVDefault
New PVsystem.PV12 irrad=1.0 Phases=1 Bus1=12.1 kV=7.1996 kVA=84.0 Pmpp=70.0 %cutin=0.001 %cutout=0.001 Daily=LoadShapePVDefault
New PVsystem.PV22 irrad=1.0 Phases=1 Bus1=22.1 kV=7.1996 kVA=84.0 Pmpp=70.0 %cutin=0.001 %cutout=0.001 Daily=LoadShapePVDefault
New PVsystem.PV32 irrad=1.0 Phases=1 Bus1=32.1 kV=7.1996 kVA=84.0 Pmpp=70.0 %cutin=0.001 %cutout=0.001 Daily=LoadShapePVDefault
New PVsystem.PV42 irrad=1.0 Phases=1 Bus1=42.1 kV=7.1996 kVA=84.0 Pmpp=70.0 %cutin=0.001 %cutout=0.001 Daily=LoadShapePVDefault
New PVsystem.PV52 irrad=1.0 Phases=1 Bus1=52.1 kV=7.1996 kVA=84.0 Pmpp=70.0 %cutin=0.001 %cutout=0.001 Daily=LoadShapePVDefault
New PVsystem.PV62 irrad=1.0 Phases=1 Bus1=62.1 kV=7.1996 kVA=84.0 Pmpp=70.0 %cutin=0.001 %cutout=0.001 Daily=LoadShapePVDefault
New PVsystem.PV72 irrad=1.0 Phases=1 Bus1=72.1 kV=7.1996 kVA=84.0 Pmpp=70.0 %cutin=0.001 %cutout=0.001 Daily=LoadShapePVDefault
New PVsystem.PV82 irrad=1.0 Phases=1 Bus1=82.1 kV=7.1996 kVA=84.0 Pmpp=70.0 %cutin=0.001 %cutout=0.001 Daily=LoadShapePVDefault
New PVsystem.PV92 irrad=1.0 Phases=1 Bus1=92.1 kV=7.1996 kVA=84.0 Pmpp=70.0 %cutin=0.001 %cutout=0.001 Daily=LoadShapePVDefault
New PVsystem.PV1002 irrad=1.0 Phases=1 Bus1=1002.1 kV=7.1996 kVA=84.0 Pmpp=70.0 %cutin=0.001 %cutout=0.001 Daily=LoadShapePVDefault
New PVsystem.PV1012 irrad=1.0 Phases=1 Bus1=1012.1 kV=7.1996 kVA=84.0 Pmpp=70.0 %cutin=0.001 %cutout=0.001 Daily=LoadShapePVDefault
New PVsystem.PV1022 irrad=1.0 Phases=1 Bus1=1022.1 kV=7.1996 kVA=84.0 Pmpp=70.0 %cutin=0.001 %cutout=0.001 Daily=LoadShapePVDefault
New PVsystem.PV1032 irrad=1.0 Phases=1 Bus1=1032.1 kV=7.1996 kVA=84.0 Pmpp=70.0 %cutin=0.001 %cutout=0.001 Daily=LoadShapePVDefault
New PVsystem.PV1042 irrad=1.0 Phases=1 Bus1=1042.1 kV=7.1996 kVA=84.0 Pmpp=70.0 %cutin=0.001 %cutout=0.001 Daily=LoadShapePVDefault
New PVsystem.PV1052 irrad=1.0 Phases=1 Bus1=1052.1 kV=7.1996 kVA=84.0 Pmpp=70.0 %cutin=0.001 %cutout=0.001 Daily=LoadShapePVDefault
New PVsystem.PV1062 irrad=1.0 Phases=1 Bus1=1062.1 kV=7.1996 kVA=84.0 Pmpp=70.0 %cutin=0.001 %cutout=0.001 Daily=LoadShapePVDefault
New PVsystem.PV1072 irrad=1.0 Phases=1 Bus1=1072.1 kV=7.1996 kVA=84.0 Pmpp=70.0 %cutin=0.001 %cutout=0.001 Daily=LoadShapePVDefault
New PVsystem.PV1082 irrad=1.0 Phases=1 Bus1=1082.1 kV=7.1996 kVA=84.0 Pmpp=70.0 %cutin=0.001 %cutout=0.001 Daily=LoadShapePVDefault
New PVsystem.PV1092 irrad=1.0 Phases=1 Bus1=1092.1 kV=7.1996 kVA=84.0 Pmpp=70.0 %cutin=0.001 %cutout=0.001 Daily=LoadShapePVDefault
New PVsystem.PV1102 irrad=1.0 Phases=1 Bus1=1102.1 kV=7.1996 kVA=84.0 Pmpp=70.0 %cutin=0.001 %cutout=0.001 Daily=LoadShapePVDefault
New PVsystem.PV1112 irrad=1.0 Phases=1 Bus1=1112.1 kV=7.1996 kVA=84.0 Pmpp=70.0 %cutin=0.001 %cutout=0.001 Daily=LoadShapePVDefault
New PVsystem.PV2002 irrad=1.0 Phases=1 Bus1=2002.1 kV=7.1996 kVA=84.0 Pmpp=70.0 %cutin=0.001 %cutout=0.001 Daily=LoadShapePVDefault
New PVsystem.PV2012 irrad=1.0 Phases=1 Bus1=2012.1 kV=7.1996 kVA=84.0 Pmpp=70.0 %cutin=0.001 %cutout=0.001 Daily=LoadShapePVDefault
New PVsystem.PV2022 irrad=1.0 Phases=1 Bus1=2022.1 kV=7.1996 kVA=84.0 Pmpp=70.0 %cutin=0.001 %cutout=0.001 Daily=LoadShapePVDefault
New PVsystem.PV2032 irrad=1.0 Phases=1 Bus1=2032.1 kV=7.1996 kVA=84.0 Pmpp=70.0 %cutin=0.001 %cutout=0.001 Daily=LoadShapePVDefault
New PVsystem.PV2042 irrad=1.0 Phases=1 Bus1=2042.1 kV=7.1996 kVA=84.0 Pmpp=70.0 %cutin=0.001 %cutout=0.001 Daily=LoadShapePVDefault
New PVsystem.PV2052 irrad=1.0 Phases=1 Bus1=2052.1 kV=7.1996 kVA=84.0 Pmpp=70.0 %cutin=0.001 %cutout=0.001 Daily=LoadShapePVDefault
New PVsystem.PV2062 irrad=1.0 Phases=1 Bus1=2062.1 kV=7.1996 kVA=84.0 Pmpp=70.0 %cutin=0.001 %cutout=0.001 Daily=LoadShapePVDefault
New PVsystem.PV2072 irrad=1.0 Phases=1 Bus1=2072.1 kV=7.1996 kVA=84.0 Pmpp=70.0 %cutin=0.001 %cutout=0.001 Daily=LoadShapePVDefault
New PVsystem.PV2082 irrad=1.0 Phases=1 Bus1=2082.1 kV=7.1996 kVA=84.0 Pmpp=70.0 %cutin=0.001 %cutout=0.001 Daily=LoadShapePVDefault
New PVsystem.PV2092 irrad=1.0 Phases=1 Bus1=2092.1 kV=7.1996 kVA=84.0 Pmpp=70.0 %cutin=0.001 %cutout=0.001 Daily=LoadShapePVDefault
New PVsystem.PV3002 irrad=1.0 Phases=1 Bus1=3002.1 kV=7.1996 kVA=84.0 Pmpp=70.0 %cutin=0.001 %cutout=0.001 Daily=LoadShapePVDefault
New PVsystem.PV3012 irrad=1.0 Phases=1 Bus1=3012.1 kV=7.1996 kVA=84.0 Pmpp=70.0 %cutin=0.001 %cutout=0.001 Daily=LoadShapePVDefault
New PVsystem.PV3022 irrad=1.0 Phases=1 Bus1=3022.1 kV=7.1996 kVA=84.0 Pmpp=70.0 %cutin=0.001 %cutout=0.001 Daily=LoadShapePVDefault
New PVsystem.PV3032 irrad=1.0 Phases=1 Bus1=3032.1 kV=7.1996 kVA=84.0 Pmpp=70.0 %cutin=0.001 %cutout=0.001 Daily=LoadShapePVDefault
New PVsystem.PV3042 irrad=1.0 Phases=1 Bus1=3042.1 kV=7.1996 kVA=84.0 Pmpp=70.0 %cutin=0.001 %cutout=0.001 Daily=LoadShapePVDefault
New PVsystem.PV3052 irrad=1.0 Phases=1 Bus1=3052.1 kV=7.1996 kVA=84.0 Pmpp=70.0 %cutin=0.001 %cutout=0.001 Daily=LoadShapePVDefault
New PVsystem.PV3062 irrad=1.0 Phases=1 Bus1=3062.1 kV=7.1996 kVA=84.0 Pmpp=70.0 %cutin=0.001 %cutout=0.001 Daily=LoadShapePVDefault
New PVsystem.PV3072 irrad=1.0 Phases=1 Bus1=3072.1 kV=7.1996 kVA=84.0 Pmpp=70.0 %cutin=0.001 %cutout=0.001 Daily=LoadShapePVDefault
New PVsystem.PV3082 irrad=1.0 Phases=1 Bus1=3082.1 kV=7.1996 kVA=84.0 Pmpp=70.0 %cutin=0.001 %cutout=0.001 Daily=LoadShapePVDefault
New PVsystem.PV3092 irrad=1.0 Phases=1 Bus1=3092.1 kV=7.1996 kVA=84.0 Pmpp=70.0 %cutin=0.001 %cutout=0.001 Daily=LoadShapePVDefault
New PVsystem.PV4002 irrad=1.0 Phases=1 Bus1=4002.1 kV=7.1996 kVA=84.0 Pmpp=70.0 %cutin=0.001 %cutout=0.001 Daily=LoadShapePVDefault
New PVsystem.PV4012 irrad=1.0 Phases=1 Bus1=4012.1 kV=7.1996 kVA=84.0 Pmpp=70.0 %cutin=0.001 %cutout=0.001 Daily=LoadShapePVDefault
New PVsystem.PV4022 irrad=1.0 Phases=1 Bus1=4022.1 kV=7.1996 kVA=84.0 Pmpp=70.0 %cutin=0.001 %cutout=0.001 Daily=LoadShapePVDefault
New PVsystem.PV4032 irrad=1.0 Phases=1 Bus1=4032.1 kV=7.1996 kVA=84.0 Pmpp=70.0 %cutin=0.001 %cutout=0.001 Daily=LoadShapePVDefault
New PVsystem.PV4042 irrad=1.0 Phases=1 Bus1=4042.1 kV=7.1996 kVA=84.0 Pmpp=70.0 %cutin=0.001 %cutout=0.001 Daily=LoadShapePVDefault
New PVsystem.PV4052 irrad=1.0 Phases=1 Bus1=4052.1 kV=7.1996 kVA=84.0 Pmpp=70.0 %cutin=0.001 %cutout=0.001 Daily=LoadShapePVDefault
New PVsystem.PV4062 irrad=1.0 Phases=1 Bus1=4062.1 kV=7.1996 kVA=84.0 Pmpp=70.0 %cutin=0.001 %cutout=0.001 Daily=LoadShapePVDefault
New PVsystem.PV4072 irrad=1.0 Phases=1 Bus1=4072.1 kV=7.1996 kVA=84.0 Pmpp=70.0 %cutin=0.001 %cutout=0.001 Daily=LoadShapePVDefault
New PVsystem.PV4082 irrad=1.0 Phases=1 Bus1=4082.1 kV=7.1996 kVA=84.0 Pmpp=70.0 %cutin=0.001 %cutout=0.001 Daily=LoadShapePVDefault
New PVsystem.PV4092 irrad=1.0 Phases=1 Bus1=4092.1 kV=7.1996 kVA=84.0 Pmpp=70.0 %cutin=0.001 %cutout=0.001 Daily=LoadShapePVDefault
New PVsystem.PV5002 irrad=1.0 Phases=1 Bus1=5002.1 kV=7.1996 kVA=84.0 Pmpp=70.0 %cutin=0.001 %cutout=0.001 Daily=LoadShapePVDefault
New PVsystem.PV5012 irrad=1.0 Phases=1 Bus1=5012.1 kV=7.1996 kVA=84.0 Pmpp=70.0 %cutin=0.001 %cutout=0.001 Daily=LoadShapePVDefault
New PVsystem.PV5022 irrad=1.0 Phases=1 Bus1=5022.1 kV=7.1996 kVA=84.0 Pmpp=70.0 %cutin=0.001 %cutout=0.001 Daily=LoadShapePVDefault
New PVsystem.PV5032 irrad=1.0 Phases=1 Bus1=5032.1 kV=7.1996 kVA=84.0 Pmpp=70.0 %cutin=0.001 %cutout=0.001 Daily=LoadShapePVDefault
New PVsystem.PV5042 irrad=1.0 Phases=1 Bus1=5042.1 kV=7.1996 kVA=84.0 Pmpp=70.0 %cutin=0.001 %cutout=0.001 Daily=LoadShapePVDefault
New PVsystem.PV5052 irrad=1.0 Phases=1 Bus1=5052.1 kV=7.1996 kVA=84.0 Pmpp=70.0 %cutin=0.001 %cutout=0.001 Daily=LoadShapePVDefault
New PVsystem.PV5062 irrad=1.0 Phases=1 Bus1=5062.1 kV=7.1996 kVA=84.0 Pmpp=70.0 %cutin=0.001 %cutout=0.001 Daily=LoadShapePVDefault
New PVsystem.PV5072 irrad=1.0 Phases=1 Bus1=5072.1 kV=7.1996 kVA=84.0 Pmpp=70.0 %cutin=0.001 %cutout=0.001 Daily=LoadShapePVDefault
New PVsystem.PV5082 irrad=1.0 Phases=1 Bus1=5082.1 kV=7.1996 kVA=84.0 Pmpp=70.0 %cutin=0.001 %cutout=0.001 Daily=LoadShapePVDefault
New PVsystem.PV5092 irrad=1.0 Phases=1 Bus1=5092.1 kV=7.1996 kVA=84.0 Pmpp=70.0 %cutin=0.001 %cutout=0.001 Daily=LoadShapePVDefault
New PVsystem.PV6002 irrad=1.0 Phases=1 Bus1=6002.1 kV=7.1996 kVA=84.0 Pmpp=70.0 %cutin=0.001 %cutout=0.001 Daily=LoadShapePVDefault
New PVsystem.PV6012 irrad=1.0 Phases=1 Bus1=6012.1 kV=7.1996 kVA=84.0 Pmpp=70.0 %cutin=0.001 %cutout=0.001 Daily=LoadShapePVDefault
New PVsystem.PV6022 irrad=1.0 Phases=1 Bus1=6022.1 kV=7.1996 kVA=84.0 Pmpp=70.0 %cutin=0.001 %cutout=0.001 Daily=LoadShapePVDefault
New PVsystem.PV6032 irrad=1.0 Phases=1 Bus1=6032.1 kV=7.1996 kVA=84.0 Pmpp=70.0 %cutin=0.001 %cutout=0.001 Daily=LoadShapePVDefault
New PVsystem.PV6042 irrad=1.0 Phases=1 Bus1=6042.1 kV=7.1996 kVA=84.0 Pmpp=70.0 %cutin=0.001 %cutout=0.001 Daily=LoadShapePVDefault
New PVsystem.PV6052 irrad=1.0 Phases=1 Bus1=6052.1 kV=7.1996 kVA=84.0 Pmpp=70.0 %cutin=0.001 %cutout=0.001 Daily=LoadShapePVDefault
New PVsystem.PV6062 irrad=1.0 Phases=1 Bus1=6062.1 kV=7.1996 kVA=84.0 Pmpp=70.0 %cutin=0.001 %cutout=0.001 Daily=LoadShapePVDefault
New PVsystem.PV6072 irrad=1.0 Phases=1 Bus1=6072.1 kV=7.1996 kVA=84.0 Pmpp=70.0 %cutin=0.001 %cutout=0.001 Daily=LoadShapePVDefault
New PVsystem.PV6082 irrad=1.0 Phases=1 Bus1=6082.1 kV=7.1996 kVA=84.0 Pmpp=70.0 %cutin=0.001 %cutout=0.001 Daily=LoadShapePVDefault
New PVsystem.PV6092 irrad=1.0 Phases=1 Bus1=6092.1 kV=7.1996 kVA=84.0 Pmpp=70.0 %cutin=0.001 %cutout=0.001 Daily=LoadShapePVDefault
New PVsystem.PV7002 irrad=1.0 Phases=1 Bus1=7002.1 kV=7.1996 kVA=84.0 Pmpp=70.0 %cutin=0.001 %cutout=0.001 Daily=LoadShapePVDefault
New PVsystem.PV7012 irrad=1.0 Phases=1 Bus1=7012.1 kV=7.1996 kVA=84.0 Pmpp=70.0 %cutin=0.001 %cutout=0.001 Daily=LoadShapePVDefault
New PVsystem.PV7022 irrad=1.0 Phases=1 Bus1=7022.1 kV=7.1996 kVA=84.0 Pmpp=70.0 %cutin=0.001 %cutout=0.001 Daily=LoadShapePVDefault
New PVsystem.PV7032 irrad=1.0 Phases=1 Bus1=7032.1 kV=7.1996 kVA=84.0 Pmpp=70.0 %cutin=0.001 %cutout=0.001 Daily=LoadShapePVDefault
New PVsystem.PV7042 irrad=1.0 Phases=1 Bus1=7042.1 kV=7.1996 kVA=84.0 Pmpp=70.0 %cutin=0.001 %cutout=0.001 Daily=LoadShapePVDefault
New PVsystem.PV7052 irrad=1.0 Phases=1 Bus1=7052.1 kV=7.1996 kVA=84.0 Pmpp=70.0 %cutin=0.001 %cutout=0.001 Daily=LoadShapePVDefault
New PVsystem.PV7062 irrad=1.0 Phases=1 Bus1=7062.1 kV=7.1996 kVA=84.0 Pmpp=70.0 %cutin=0.001 %cutout=0.001 Daily=LoadShapePVDefault
New PVsystem.PV7072 irrad=1.0 Phases=1 Bus1=7072.1 kV=7.1996 kVA=84.0 Pmpp=70.0 %cutin=0.001 %cutout=0.001 Daily=LoadShapePVDefault
New PVsystem.PV7082 irrad=1.0 Phases=1 Bus1=7082.1 kV=7.1996 kVA=84.0 Pmpp=70.0 %cutin=0.001 %cutout=0.001 Daily=LoadShapePVDefault
New PVsystem.PV7092 irrad=1.0 Phases=1 Bus1=7092.1 kV=7.1996 kVA=84.0 Pmpp=70.0 %cutin=0.001 %cutout=0.001 Daily=LoadShapePVDefault
New PVsystem.PV8002 irrad=1.0 Phases=1 Bus1=8002.1 kV=7.1996 kVA=84.0 Pmpp=70.0 %cutin=0.001 %cutout=0.001 Daily=LoadShapePVDefault
New PVsystem.PV8012 irrad=1.0 Phases=1 Bus1=8012.1 kV=7.1996 kVA=84.0 Pmpp=70.0 %cutin=0.001 %cutout=0.001 Daily=LoadShapePVDefault
New PVsystem.PV8022 irrad=1.0 Phases=1 Bus1=8022.1 kV=7.1996 kVA=84.0 Pmpp=70.0 %cutin=0.001 %cutout=0.001 Daily=LoadShapePVDefault
New PVsystem.PV8032 irrad=1.0 Phases=1 Bus1=8032.1 kV=7.1996 kVA=84.0 Pmpp=70.0 %cutin=0.001 %cutout=0.001 Daily=LoadShapePVDefault
New PVsystem.PV8042 irrad=1.0 Phases=1 Bus1=8042.1 kV=7.1996 kVA=84.0 Pmpp=70.0 %cutin=0.001 %cutout=0.001 Daily=LoadShapePVDefault
New PVsystem.PV8052 irrad=1.0 Phases=1 Bus1=8052.1 kV=7.1996 kVA=84.0 Pmpp=70.0 %cutin=0.001 %cutout=0.001 Daily=LoadShapePVDefault
New PVsystem.PV8062 irrad=1.0 Phases=1 Bus1=8062.1 kV=7.1996 kVA=84.0 Pmpp=70.0 %cutin=0.001 %cutout=0.001 Daily=LoadShapePVDefault
New PVsystem.PV8072 irrad=1.0 Phases=1 Bus1=8072.1 kV=7.1996 kVA=84.0 Pmpp=70.0 %cutin=0.001 %cutout=0.001 Daily=LoadShapePVDefault
New PVsystem.PV8082 irrad=1.0 Phases=1 Bus1=8082.1 kV=7.1996 kVA=84.0 Pmpp=70.0 %cutin=0.001 %cutout=0.001 Daily=LoadShapePVDefault
New PVsystem.PV8092 irrad=1.0 Phases=1 Bus1=8092.1 kV=7.1996 kVA=84.0 Pmpp=70.0 %cutin=0.001 %cutout=0.001 Daily=LoadShapePVDefault
New PVsystem.PV9002 irrad=1.0 Phases=1 Bus1=9002.1 kV=7.1996 kVA=84.0 Pmpp=70.0 %cutin=0.001 %cutout=0.001 Daily=LoadShapePVDefault
New PVsystem.PV9012 irrad=1.0 Phases=1 Bus1=9012.1 kV=7.1996 kVA=84.0 Pmpp=70.0 %cutin=0.001 %cutout=0.001 Daily=LoadShapePVDefault
New PVsystem.PV9022 irrad=1.0 Phases=1 Bus1=9022.1 kV=7.1996 kVA=84.0 Pmpp=70.0 %cutin=0.001 %cutout=0.001 Daily=LoadShapePVDefault
New PVsystem.PV9032 irrad=1.0 Phases=1 Bus1=9032.1 kV=7.1996 kVA=84.0 Pmpp=70.0 %cutin=0.001 %cutout=0.001 Daily=LoadShapePVDefault
New PVsystem.PV9042 irrad=1.0 Phases=1 Bus1=9042.1 kV=7.1996 kVA=84.0 Pmpp=70.0 %cutin=0.001 %cutout=0.001 Daily=LoadShapePVDefault
New PVsystem.PV9052 irrad=1.0 Phases=1 Bus1=9052.1 kV=7.1996 kVA=84.0 Pmpp=70.0 %cutin=0.001 %cutout=0.001 Daily=LoadShapePVDefault
New PVsystem.PV9062 irrad=1.0 Phases=1 Bus1=9062.1 kV=7.1996 kVA=84.0 Pmpp=70.0 %cutin=0.001 %cutout=0.001 Daily=LoadShapePVDefault
New PVsystem.PV9072 irrad=1.0 Phases=1 Bus1=9072.1 kV=7.1996 kVA=84.0 Pmpp=70.0 %cutin=0.001 %cutout=0.001 Daily=LoadShapePVDefault
New PVsystem.PV9082 irrad=1.0 Phases=1 Bus1=9082.1 kV=7.1996 kVA=84.0 Pmpp=70.0 %cutin=0.001 %cutout=0.001 Daily=LoadShapePVDefault
New PVsystem.PV9092 irrad=1.0 Phases=1 Bus1=9092.1 kV=7.1996 kVA=84.0 Pmpp=70.0 %cutin=0.001 %cutout=0.001 Daily=LoadShapePVDefault
New PVsystem.PV10002 irrad=1.0 Phases=1 Bus1=10002.1 kV=7.1996 kVA=84.0 Pmpp=70.0 %cutin=0.001 %cutout=0.001 Daily=LoadShapePVDefault
New PVsystem.PV10012 irrad=1.0 Phases=1 Bus1=10012.1 kV=7.1996 kVA=84.0 Pmpp=70.0 %cutin=0.001 %cutout=0.001 Daily=LoadShapePVDefault
New PVsystem.PV10022 irrad=1.0 Phases=1 Bus1=10022.1 kV=7.1996 kVA=84.0 Pmpp=70.0 %cutin=0.001 %cutout=0.001 Daily=LoadShapePVDefault
New PVsystem.PV10032 irrad=1.0 Phases=1 Bus1=10032.1 kV=7.1996 kVA=84.0 Pmpp=70.0 %cutin=0.001 %cutout=0.001 Daily=LoadShapePVDefault
New PVsystem.PV10042 irrad=1.0 Phases=1 Bus1=10042.1 kV=7.1996 kVA=84.0 Pmpp=70.0 %cutin=0.001 %cutout=0.001 Daily=LoadShapePVDefault
New PVsystem.PV10052 irrad=1.0 Phases=1 Bus1=10052.1 kV=7.1996 kVA=84.0 Pmpp=70.0 %cutin=0.001 %cutout=0.001 Daily=LoadShapePVDefault
New PVsystem.PV10062 irrad=1.0 Phases=1 Bus1=10062.1 kV=7.1996 kVA=84.0 Pmpp=70.0 %cutin=0.001 %cutout=0.001 Daily=LoadShapePVDefault
New PVsystem.PV10072 irrad=1.0 Phases=1 Bus1=10072.1 kV=7.1996 kVA=84.0 Pmpp=70.0 %cutin=0.001 %cutout=0.001 Daily=LoadShapePVDefault
New PVsystem.PV10082 irrad=1.0 Phases=1 Bus1=10082.1 kV=7.1996 kVA=84.0 Pmpp=70.0 %cutin=0.001 %cutout=0.001 Daily=LoadShapePVDefault
New PVsystem.PV10092 irrad=1.0 Phases=1 Bus1=10092.1 kV=7.1996 kVA=84.0 Pmpp=70.0 %cutin=0.001 %cutout=0.001 Daily=LoadShapePVDefault
New PVsystem.PV11002 irrad=1.0 Phases=1 Bus1=11002.1 kV=7.1996 kVA=84.0 Pmpp=70.0 %cutin=0.001 %cutout=0.001 Daily=LoadShapePVDefault
New PVsystem.PV11012 irrad=1.0 Phases=1 Bus1=11012.1 kV=7.1996 kVA=84.0 Pmpp=70.0 %cutin=0.001 %cutout=0.001 Daily=LoadShapePVDefault
New PVsystem.PV11022 irrad=1.0 Phases=1 Bus1=11022.1 kV=7.1996 kVA=84.0 Pmpp=70.0 %cutin=0.001 %cutout=0.001 Daily=LoadShapePVDefault
New PVsystem.PV11032 irrad=1.0 Phases=1 Bus1=11032.1 kV=7.1996 kVA=84.0 Pmpp=70.0 %cutin=0.001 %cutout=0.001 Daily=LoadShapePVDefault
New PVsystem.PV11042 irrad=1.0 Phases=1 Bus1=11042.1 kV=7.1996 kVA=84.0 Pmpp=70.0 %cutin=0.001 %cutout=0.001 Daily=LoadShapePVDefault
New PVsystem.PV11052 irrad=1.0 Phases=1 Bus1=11052.1 kV=7.1996 kVA=84.0 Pmpp=70.0 %cutin=0.001 %cutout=0.001 Daily=LoadShapePVDefault
New PVsystem.PV11062 irrad=1.0 Phases=1 Bus1=11062.1 kV=7.1996 kVA=84.0 Pmpp=70.0 %cutin=0.001 %cutout=0.001 Daily=LoadShapePVDefault
New PVsystem.PV11072 irrad=1.0 Phases=1 Bus1=11072.1 kV=7.1996 kVA=84.0 Pmpp=70.0 %cutin=0.001 %cutout=0.001 Daily=LoadShapePVDefault
New PVsystem.PV11082 irrad=1.0 Phases=1 Bus1=11082.1 kV=7.1996 kVA=84.0 Pmpp=70.0 %cutin=0.001 %cutout=0.001 Daily=LoadShapePVDefault
New PVsystem.PV11092 irrad=1.0 Phases=1 Bus1=11092.1 kV=7.1996 kVA=84.0 Pmpp=70.0 %cutin=0.001 %cutout=0.001 Daily=LoadShapePVDefault
New PVsystem.PV12002 irrad=1.0 Phases=1 Bus1=12002.1 kV=7.1996 kVA=84.0 Pmpp=70.0 %cutin=0.001 %cutout=0.001 Daily=LoadShapePVDefault
New PVsystem.PV12012 irrad=1.0 Phases=1 Bus1=12012.1 kV=7.1996 kVA=84.0 Pmpp=70.0 %cutin=0.001 %cutout=0.001 Daily=LoadShapePVDefault
New PVsystem.PV12022 irrad=1.0 Phases=1 Bus1=12022.1 kV=7.1996 kVA=84.0 Pmpp=70.0 %cutin=0.001 %cutout=0.001 Daily=LoadShapePVDefault
New PVsystem.PV12032 irrad=1.0 Phases=1 Bus1=12032.1 kV=7.1996 kVA=84.0 Pmpp=70.0 %cutin=0.001 %cutout=0.001 Daily=LoadShapePVDefault
New PVsystem.PV12042 irrad=1.0 Phases=1 Bus1=12042.1 kV=7.1996 kVA=84.0 Pmpp=70.0 %cutin=0.001 %cutout=0.001 Daily=LoadShapePVDefault
New PVsystem.PV12052 irrad=1.0 Phases=1 Bus1=12052.1 kV=7.1996 kVA=84.0 Pmpp=70.0 %cutin=0.001 %cutout=0.001 Daily=LoadShapePVDefault
New PVsystem.PV12062 irrad=1.0 Phases=1 Bus1=12062.1 kV=7.1996 kVA=84.0 Pmpp=70.0 %cutin=0.001 %cutout=0.001 Daily=LoadShapePVDefault
New PVsystem.PV12072 irrad=1.0 Phases=1 Bus1=12072.1 kV=7.1996 kVA=84.0 Pmpp=70.0 %cutin=0.001 %cutout=0.001 Daily=LoadShapePVDefault
New PVsystem.PV12082 irrad=1.0 Phases=1 Bus1=12082.1 kV=7.1996 kVA=84.0 Pmpp=70.0 %cutin=0.001 %cutout=0.001 Daily=LoadShapePVDefault
New PVsystem.PV12092 irrad=1.0 Phases=1 Bus1=12092.1 kV=7.1996 kVA=84.0 Pmpp=70.0 %cutin=0.001 %cutout=0.001 Daily=LoadShapePVDefault
New PVsystem.PV13002 irrad=1.0 Phases=1 Bus1=13002.1 kV=7.1996 kVA=84.0 Pmpp=70.0 %cutin=0.001 %cutout=0.001 Daily=LoadShapePVDefault
New PVsystem.PV13012 irrad=1.0 Phases=1 Bus1=13012.1 kV=7.1996 kVA=84.0 Pmpp=70.0 %cutin=0.001 %cutout=0.001 Daily=LoadShapePVDefault
New PVsystem.PV13022 irrad=1.0 Phases=1 Bus1=13022.1 kV=7.1996 kVA=84.0 Pmpp=70.0 %cutin=0.001 %cutout=0.001 Daily=LoadShapePVDefault
New PVsystem.PV13032 irrad=1.0 Phases=1 Bus1=13032.1 kV=7.1996 kVA=84.0 Pmpp=70.0 %cutin=0.001 %cutout=0.001 Daily=LoadShapePVDefault
New PVsystem.PV13042 irrad=1.0 Phases=1 Bus1=13042.1 kV=7.1996 kVA=84.0 Pmpp=70.0 %cutin=0.001 %cutout=0.001 Daily=LoadShapePVDefault
New PVsystem.PV13052 irrad=1.0 Phases=1 Bus1=13052.1 kV=7.1996 kVA=84.0 Pmpp=70.0 %cutin=0.001 %cutout=0.001 Daily=LoadShapePVDefault
New PVsystem.PV13062 irrad=1.0 Phases=1 Bus1=13062.1 kV=7.1996 kVA=84.0 Pmpp=70.0 %cutin=0.001 %cutout=0.001 Daily=LoadShapePVDefault
New PVsystem.PV13072 irrad=1.0 Phases=1 Bus1=13072.1 kV=7.1996 kVA=84.0 Pmpp=70.0 %cutin=0.001 %cutout=0.001 Daily=LoadShapePVDefault
New PVsystem.PV13082 irrad=1.0 Phases=1 Bus1=13082.1 kV=7.1996 kVA=84.0 Pmpp=70.0 %cutin=0.001 %cutout=0.001 Daily=LoadShapePVDefault
New PVsystem.PV13092 irrad=1.0 Phases=1 Bus1=13092.1 kV=7.1996 kVA=84.0 Pmpp=70.0 %cutin=0.001 %cutout=0.001 Daily=LoadShapePVDefault
New PVsystem.PV14002 irrad=1.0 Phases=1 Bus1=14002.1 kV=7.1996 kVA=84.0 Pmpp=70.0 %cutin=0.001 %cutout=0.001 Daily=LoadShapePVDefault
New PVsystem.PV14012 irrad=1.0 Phases=1 Bus1=14012.1 kV=7.1996 kVA=84.0 Pmpp=70.0 %cutin=0.001 %cutout=0.001 Daily=LoadShapePVDefault
New PVsystem.PV14022 irrad=1.0 Phases=1 Bus1=14022.1 kV=7.1996 kVA=84.0 Pmpp=70.0 %cutin=0.001 %cutout=0.001 Daily=LoadShapePVDefault
New PVsystem.PV14032 irrad=1.0 Phases=1 Bus1=14032.1 kV=7.1996 kVA=84.0 Pmpp=70.0 %cutin=0.001 %cutout=0.001 Daily=LoadShapePVDefault
New PVsystem.PV14042 irrad=1.0 Phases=1 Bus1=14042.1 kV=7.1996 kVA=84.0 Pmpp=70.0 %cutin=0.001 %cutout=0.001 Daily=LoadShapePVDefault
New PVsystem.PV14052 irrad=1.0 Phases=1 Bus1=14052.1 kV=7.1996 kVA=84.0 Pmpp=70.0 %cutin=0.001 %cutout=0.001 Daily=LoadShapePVDefault
New PVsystem.PV14062 irrad=1.0 Phases=1 Bus1=14062.1 kV=7.1996 kVA=84.0 Pmpp=70.0 %cutin=0.001 %cutout=0.001 Daily=LoadShapePVDefault
New PVsystem.PV14072 irrad=1.0 Phases=1 Bus1=14072.1 kV=7.1996 kVA=84.0 Pmpp=70.0 %cutin=0.001 %cutout=0.001 Daily=LoadShapePVDefault
New PVsystem.PV14082 irrad=1.0 Phases=1 Bus1=14082.1 kV=7.1996 kVA=84.0 Pmpp=70.0 %cutin=0.001 %cutout=0.001 Daily=LoadShapePVDefault
New PVsystem.PV14092 irrad=1.0 Phases=1 Bus1=14092.1 kV=7.1996 kVA=84.0 Pmpp=70.0 %cutin=0.001 %cutout=0.001 Daily=LoadShapePVDefault
New PVsystem.PV15002 irrad=1.0 Phases=1 Bus1=15002.1 kV=7.1996 kVA=84.0 Pmpp=70.0 %cutin=0.001 %cutout=0.001 Daily=LoadShapePVDefault
New PVsystem.PV15012 irrad=1.0 Phases=1 Bus1=15012.1 kV=7.1996 kVA=84.0 Pmpp=70.0 %cutin=0.001 %cutout=0.001 Daily=LoadShapePVDefault
New PVsystem.PV15022 irrad=1.0 Phases=1 Bus1=15022.1 kV=7.1996 kVA=84.0 Pmpp=70.0 %cutin=0.001 %cutout=0.001 Daily=LoadShapePVDefault
New PVsystem.PV15032 irrad=1.0 Phases=1 Bus1=15032.1 kV=7.1996 kVA=84.0 Pmpp=70.0 %cutin=0.001 %cutout=0.001 Daily=LoadShapePVDefault
New PVsystem.PV15042 irrad=1.0 Phases=1 Bus1=15042.1 kV=7.1996 kVA=84.0 Pmpp=70.0 %cutin=0.001 %cutout=0.001 Daily=LoadShapePVDefault
New PVsystem.PV15052 irrad=1.0 Phases=1 Bus1=15052.1 kV=7.1996 kVA=84.0 Pmpp=70.0 %cutin=0.001 %cutout=0.001 Daily=LoadShapePVDefault
New PVsystem.PV15062 irrad=1.0 Phases=1 Bus1=15062.1 kV=7.1996 kVA=84.0 Pmpp=70.0 %cutin=0.001 %cutout=0.001 Daily=LoadShapePVDefault
New PVsystem.PV15072 irrad=1.0 Phases=1 Bus1=15072.1 kV=7.1996 kVA=84.0 Pmpp=70.0 %cutin=0.001 %cutout=0.001 Daily=LoadShapePVDefault
New PVsystem.PV15082 irrad=1.0 Phases=1 Bus1=15082.1 kV=7.1996 kVA=84.0 Pmpp=70.0 %cutin=0.001 %cutout=0.001 Daily=LoadShapePVDefault
New PVsystem.PV15092 irrad=1.0 Phases=1 Bus1=15092.1 kV=7.1996 kVA=84.0 Pmpp=70.0 %cutin=0.001 %cutout=0.001 Daily=LoadShapePVDefault
New PVsystem.PV16002 irrad=1.0 Phases=1 Bus1=16002.1 kV=7.1996 kVA=84.0 Pmpp=70.0 %cutin=0.001 %cutout=0.001 Daily=LoadShapePVDefault
New PVsystem.PV16012 irrad=1.0 Phases=1 Bus1=16012.1 kV=7.1996 kVA=84.0 Pmpp=70.0 %cutin=0.001 %cutout=0.001 Daily=LoadShapePVDefault
New PVsystem.PV16022 irrad=1.0 Phases=1 Bus1=16022.1 kV=7.1996 kVA=84.0 Pmpp=70.0 %cutin=0.001 %cutout=0.001 Daily=LoadShapePVDefault
New PVsystem.PV16032 irrad=1.0 Phases=1 Bus1=16032.1 kV=7.1996 kVA=84.0 Pmpp=70.0 %cutin=0.001 %cutout=0.001 Daily=LoadShapePVDefault
New PVsystem.PV16042 irrad=1.0 Phases=1 Bus1=16042.1 kV=7.1996 kVA=84.0 Pmpp=70.0 %cutin=0.001 %cutout=0.001 Daily=LoadShapePVDefault
New PVsystem.PV16052 irrad=1.0 Phases=1 Bus1=16052.1 kV=7.1996 kVA=84.0 Pmpp=70.0 %cutin=0.001 %cutout=0.001 Daily=LoadShapePVDefault
New PVsystem.PV16062 irrad=1.0 Phases=1 Bus1=16062.1 kV=7.1996 kVA=84.0 Pmpp=70.0 %cutin=0.001 %cutout=0.001 Daily=LoadShapePVDefault
New PVsystem.PV16072 irrad=1.0 Phases=1 Bus1=16072.1 kV=7.1996 kVA=84.0 Pmpp=70.0 %cutin=0.001 %cutout=0.001 Daily=LoadShapePVDefault
New PVsystem.PV16082 irrad=1.0 Phases=1 Bus1=16082.1 kV=7.1996 kVA=84.0 Pmpp=70.0 %cutin=0.001 %cutout=0.001 Daily=LoadShapePVDefault
New PVsystem.PV16092 irrad=1.0 Phases=1 Bus1=16092.1 kV=7.1996 kVA=84.0 Pmpp=70.0 %cutin=0.001 %cutout=0.001 Daily=LoadShapePVDefault
New PVsystem.PV17002 irrad=1.0 Phases=1 Bus1=17002.1 kV=7.1996 kVA=84.0 Pmpp=70.0 %cutin=0.001 %cutout=0.001 Daily=LoadShapePVDefault
New PVsystem.PV17012 irrad=1.0 Phases=1 Bus1=17012.1 kV=7.1996 kVA=84.0 Pmpp=70.0 %cutin=0.001 %cutout=0.001 Daily=LoadShapePVDefault
New PVsystem.PV17022 irrad=1.0 Phases=1 Bus1=17022.1 kV=7.1996 kVA=84.0 Pmpp=70.0 %cutin=0.001 %cutout=0.001 Daily=LoadShapePVDefault
New PVsystem.PV17032 irrad=1.0 Phases=1 Bus1=17032.1 kV=7.1996 kVA=84.0 Pmpp=70.0 %cutin=0.001 %cutout=0.001 Daily=LoadShapePVDefault
New PVsystem.PV17042 irrad=1.0 Phases=1 Bus1=17042.1 kV=7.1996 kVA=84.0 Pmpp=70.0 %cutin=0.001 %cutout=0.001 Daily=LoadShapePVDefault
New PVsystem.PV17052 irrad=1.0 Phases=1 Bus1=17052.1 kV=7.1996 kVA=84.0 Pmpp=70.0 %cutin=0.001 %cutout=0.001 Daily=LoadShapePVDefault
New PVsystem.PV17062 irrad=1.0 Phases=1 Bus1=17062.1 kV=7.1996 kVA=84.0 Pmpp=70.0 %cutin=0.001 %cutout=0.001 Daily=LoadShapePVDefault
New PVsystem.PV17072 irrad=1.0 Phases=1 Bus1=17072.1 kV=7.1996 kVA=84.0 Pmpp=70.0 %cutin=0.001 %cutout=0.001 Daily=LoadShapePVDefault
New PVsystem.PV17082 irrad=1.0 Phases=1 Bus1=17082.1 kV=7.1996 kVA=84.0 Pmpp=70.0 %cutin=0.001 %cutout=0.001 Daily=LoadShapePVDefault
New PVsystem.PV17092 irrad=1.0 Phases=1 Bus1=17092.1 kV=7.1996 kVA=84.0 Pmpp=70.0 %cutin=0.001 %cutout=0.001 Daily=LoadShapePVDefault
New PVsystem.PV18002 irrad=1.0 Phases=1 Bus1=18002.1 kV=7.1996 kVA=84.0 Pmpp=70.0 %cutin=0.001 %cutout=0.001 Daily=LoadShapePVDefault
New PVsystem.PV18012 irrad=1.0 Phases=1 Bus1=18012.1 kV=7.1996 kVA=84.0 Pmpp=70.0 %cutin=0.001 %cutout=0.001 Daily=LoadShapePVDefault
New PVsystem.PV18022 irrad=1.0 Phases=1 Bus1=18022.1 kV=7.1996 kVA=84.0 Pmpp=70.0 %cutin=0.001 %cutout=0.001 Daily=LoadShapePVDefault
New PVsystem.PV18032 irrad=1.0 Phases=1 Bus1=18032.1 kV=7.1996 kVA=84.0 Pmpp=70.0 %cutin=0.001 %cutout=0.001 Daily=LoadShapePVDefault
New PVsystem.PV18042 irrad=1.0 Phases=1 Bus1=18042.1 kV=7.1996 kVA=84.0 Pmpp=70.0 %cutin=0.001 %cutout=0.001 Daily=LoadShapePVDefault
New PVsystem.PV18052 irrad=1.0 Phases=1 Bus1=18052.1 kV=7.1996 kVA=84.0 Pmpp=70.0 %cutin=0.001 %cutout=0.001 Daily=LoadShapePVDefault
New PVsystem.PV18062 irrad=1.0 Phases=1 Bus1=18062.1 kV=7.1996 kVA=84.0 Pmpp=70.0 %cutin=0.001 %cutout=0.001 Daily=LoadShapePVDefault
New PVsystem.PV18072 irrad=1.0 Phases=1 Bus1=18072.1 kV=7.1996 kVA=84.0 Pmpp=70.0 %cutin=0.001 %cutout=0.001 Daily=LoadShapePVDefault
New PVsystem.PV18082 irrad=1.0 Phases=1 Bus1=18082.1 kV=7.1996 kVA=84.0 Pmpp=70.0 %cutin=0.001 %cutout=0.001 Daily=LoadShapePVDefault
New PVsystem.PV18092 irrad=1.0 Phases=1 Bus1=18092.1 kV=7.1996 kVA=84.0 Pmpp=70.0 %cutin=0.001 %cutout=0.001 Daily=LoadShapePVDefault
New PVsystem.PV19002 irrad=1.0 Phases=1 Bus1=19002.1 kV=7.1996 kVA=84.0 Pmpp=70.0 %cutin=0.001 %cutout=0.001 Daily=LoadShapePVDefault
New PVsystem.PV19012 irrad=1.0 Phases=1 Bus1=19012.1 kV=7.1996 kVA=84.0 Pmpp=70.0 %cutin=0.001 %cutout=0.001 Daily=LoadShapePVDefault
New PVsystem.PV19022 irrad=1.0 Phases=1 Bus1=19022.1 kV=7.1996 kVA=84.0 Pmpp=70.0 %cutin=0.001 %cutout=0.001 Daily=LoadShapePVDefault
New PVsystem.PV19032 irrad=1.0 Phases=1 Bus1=19032.1 kV=7.1996 kVA=84.0 Pmpp=70.0 %cutin=0.001 %cutout=0.001 Daily=LoadShapePVDefault
New PVsystem.PV19042 irrad=1.0 Phases=1 Bus1=19042.1 kV=7.1996 kVA=84.0 Pmpp=70.0 %cutin=0.001 %cutout=0.001 Daily=LoadShapePVDefault
New PVsystem.PV19052 irrad=1.0 Phases=1 Bus1=19052.1 kV=7.1996 kVA=84.0 Pmpp=70.0 %cutin=0.001 %cutout=0.001 Daily=LoadShapePVDefault
New PVsystem.PV19062 irrad=1.0 Phases=1 Bus1=19062.1 kV=7.1996 kVA=84.0 Pmpp=70.0 %cutin=0.001 %cutout=0.001 Daily=LoadShapePVDefault
New PVsystem.PV19072 irrad=1.0 Phases=1 Bus1=19072.1 kV=7.1996 kVA=84.0 Pmpp=70.0 %cutin=0.001 %cutout=0.001 Daily=LoadShapePVDefault
...
